[General]
network = VANETSimulation

[Config SecureRoutingTest]
description = "Testing Secure Routing in VANET"
sim-time-limit = 100s
