<configuration>
    <input>
        <net-file value="vanet_network.net.xml"/>
        <route-files value="vanet_routes.rou.xml"/>
    </input>
    <time>
        <begin value="0"/>
        <end value="100"/>
    </time>
</configuration>
