<routes>
    <vType id="car" accel="0.8" decel="4.5" sigma="0.5" length="5" maxSpeed="20"/>
    <flow id="flow1" type="car" begin="0" end="100" number="50"/>
</routes>
